
#======================================================================
# CRYSTAL DATA
#----------------------------------------------------------------------
data_VESTA_phase_1

_chemical_name_common                  'Al B N                                '
_cell_length_a                         17.527901
_cell_length_b                         17.527901
_cell_length_c                         15.000000
_cell_angle_alpha                      90.000000
_cell_angle_beta                       90.000000
_cell_angle_gamma                      120.000000
_cell_volume                           3990.999734
_space_group_name_H-M_alt              'P 1'
_space_group_IT_number                 1

loop_
_space_group_symop_operation_xyz
   'x, y, z'

loop_
   _atom_site_label
   _atom_site_occupancy
   _atom_site_fract_x
   _atom_site_fract_y
   _atom_site_fract_z
   _atom_site_adp_type
   _atom_site_U_iso_or_equiv
   _atom_site_type_symbol
   Al1        1.0     0.444007     0.507719     0.111257    Uiso  ? Al
   B1         1.0     0.905095     0.952660     0.110999    Uiso  ? B
   B2         1.0     0.906143     0.096252     0.111025    Uiso  ? B
   B3         1.0     0.906612     0.239020     0.111084    Uiso  ? B
   B4         1.0     0.906143     0.381319     0.111025    Uiso  ? B
   B5         1.0     0.905095     0.523865     0.110999    Uiso  ? B
   B6         1.0     0.903873     0.666094     0.111056    Uiso  ? B
   B7         1.0     0.903873     0.809209     0.111056    Uiso  ? B
   B8         1.0     0.046950     0.951636     0.111012    Uiso  ? B
   B9         1.0     0.048088     0.095045     0.110997    Uiso  ? B
   B10        1.0     0.049599     0.239037     0.111022    Uiso  ? B
   B11        1.0     0.049599     0.381992     0.111022    Uiso  ? B
   B12        1.0     0.048088     0.524473     0.110997    Uiso  ? B
   B13        1.0     0.046950     0.666746     0.111012    Uiso  ? B
   B14        1.0     0.046949     0.809191     0.110990    Uiso  ? B
   B15        1.0     0.189741     0.951456     0.111003    Uiso  ? B
   B16        1.0     0.189752     0.093404     0.111041    Uiso  ? B
   B17        1.0     0.191056     0.236860     0.111008    Uiso  ? B
   B18        1.0     0.193576     0.382503     0.111035    Uiso  ? B
   B19        1.0     0.191056     0.525626     0.111008    Uiso  ? B
   B20        1.0     0.189752     0.667779     0.111041    Uiso  ? B
   B21        1.0     0.189741     0.809718     0.111003    Uiso  ? B
   B22        1.0     0.332947     0.952190     0.111018    Uiso  ? B
   B23        1.0     0.332920     0.092737     0.111064    Uiso  ? B
   B24        1.0     0.332522     0.232789     0.111021    Uiso  ? B
   B25        1.0     0.333764     0.373101     0.111160    Uiso  ? B
   B26        1.0     0.333764     0.532094     0.111160    Uiso  ? B
   B27        1.0     0.332522     0.671163     0.111021    Uiso  ? B
   B28        1.0     0.332920     0.811614     0.111064    Uiso  ? B
   B29        1.0     0.476555     0.953641     0.111006    Uiso  ? B
   B30        1.0     0.476555     0.094344     0.111006    Uiso  ? B
   B31        1.0     0.476632     0.234799     0.111010    Uiso  ? B
   B32        1.0     0.477397     0.375532     0.111031    Uiso  ? B
   B33        1.0     0.477397     0.673295     0.111031    Uiso  ? B
   B34        1.0     0.476632     0.813262     0.111010    Uiso  ? B
   B35        1.0     0.620114     0.954238     0.110994    Uiso  ? B
   B36        1.0     0.620160     0.095794     0.110983    Uiso  ? B
   B37        1.0     0.620114     0.237306     0.110994    Uiso  ? B
   B38        1.0     0.620106     0.379439     0.111002    Uiso  ? B
   B39        1.0     0.616712     0.520033     0.111050    Uiso  ? B
   B40        1.0     0.616712     0.668110     0.111050    Uiso  ? B
   B41        1.0     0.620106     0.812097     0.111002    Uiso  ? B
   B42        1.0     0.763058     0.953910     0.110989    Uiso  ? B
   B43        1.0     0.763395     0.096302     0.111028    Uiso  ? B
   B44        1.0     0.763395     0.238522     0.111028    Uiso  ? B
   B45        1.0     0.763058     0.380578     0.110989    Uiso  ? B
   B46        1.0     0.761499     0.522768     0.111040    Uiso  ? B
   B47        1.0     0.760463     0.665947     0.111099    Uiso  ? B
   B48        1.0     0.761499     0.810161     0.111040    Uiso  ? B
   N1         1.0     0.951700     0.904193     0.111008    Uiso  ? N
   N2         1.0     0.952925     0.047802     0.110976    Uiso  ? N
   N3         1.0     0.954355     0.191551     0.111034    Uiso  ? N
   N4         1.0     0.954355     0.334231     0.111034    Uiso  ? N
   N5         1.0     0.952925     0.476550     0.110976    Uiso  ? N
   N6         1.0     0.951700     0.618936     0.111008    Uiso  ? N
   N7         1.0     0.951121     0.761275     0.111029    Uiso  ? N
   N8         1.0     0.094409     0.904056     0.110971    Uiso  ? N
   N9         1.0     0.094797     0.046687     0.111001    Uiso  ? N
   N10        1.0     0.096275     0.190444     0.110980    Uiso  ? N
   N11        1.0     0.098256     0.334842     0.110994    Uiso  ? N
   N12        1.0     0.096275     0.477260     0.110980    Uiso  ? N
   N13        1.0     0.094797     0.619538     0.111001    Uiso  ? N
   N14        1.0     0.094409     0.761783     0.110971    Uiso  ? N
   N15        1.0     0.237670     0.904550     0.110977    Uiso  ? N
   N16        1.0     0.237694     0.046301     0.111037    Uiso  ? N
   N17        1.0     0.237814     0.188384     0.111010    Uiso  ? N
   N18        1.0     0.240367     0.333009     0.111041    Uiso  ? N
   N19        1.0     0.240367     0.478787     0.111041    Uiso  ? N
   N20        1.0     0.237814     0.620858     0.111010    Uiso  ? N
   N21        1.0     0.237694     0.762822     0.111037    Uiso  ? N
   N22        1.0     0.381246     0.905962     0.111015    Uiso  ? N
   N23        1.0     0.381246     0.046713     0.111015    Uiso  ? N
   N24        1.0     0.381332     0.187292     0.111020    Uiso  ? N
   N25        1.0     0.381131     0.327045     0.111021    Uiso  ? N
   N26        1.0     0.381131     0.625515     0.111021    Uiso  ? N
   N27        1.0     0.381332     0.765469     0.111020    Uiso  ? N
   N28        1.0     0.524872     0.907342     0.110988    Uiso  ? N
   N29        1.0     0.524898     0.048163     0.110969    Uiso  ? N
   N30        1.0     0.524872     0.188959     0.110988    Uiso  ? N
   N31        1.0     0.525033     0.329550     0.110987    Uiso  ? N
   N32        1.0     0.523049     0.469199     0.111040    Uiso  ? N
   N33        1.0     0.523049     0.625279     0.111040    Uiso  ? N
   N34        1.0     0.525033     0.766912     0.110987    Uiso  ? N
   N35        1.0     0.667988     0.906810     0.110973    Uiso  ? N
   N36        1.0     0.668169     0.048863     0.110981    Uiso  ? N
   N37        1.0     0.668169     0.190733     0.110981    Uiso  ? N
   N38        1.0     0.667988     0.332607     0.110973    Uiso  ? N
   N39        1.0     0.666666     0.474824     0.111011    Uiso  ? N
   N40        1.0     0.663838     0.617633     0.111051    Uiso  ? N
   N41        1.0     0.666666     0.763270     0.111011    Uiso  ? N
   N42        1.0     0.809751     0.905183     0.110986    Uiso  ? N
   N43        1.0     0.810995     0.048808     0.110999    Uiso  ? N
   N44        1.0     0.811302     0.191364     0.111052    Uiso  ? N
   N45        1.0     0.810995     0.333615     0.110999    Uiso  ? N
   N46        1.0     0.809751     0.475996     0.110986    Uiso  ? N
   N47        1.0     0.808128     0.618352     0.111061    Uiso  ? N
   N48        1.0     0.808128     0.761205     0.111061    Uiso  ? N
