
#======================================================================
# CRYSTAL DATA
#----------------------------------------------------------------------
data_VESTA_phase_1

_chemical_name_common                  'B C N                                 '
_cell_length_a                         17.527901
_cell_length_b                         17.527901
_cell_length_c                         15.000000
_cell_angle_alpha                      90.000000
_cell_angle_beta                       90.000000
_cell_angle_gamma                      120.000000
_cell_volume                           3990.999734
_space_group_name_H-M_alt              'P 1'
_space_group_IT_number                 1

loop_
_space_group_symop_operation_xyz
   'x, y, z'

loop_
   _atom_site_label
   _atom_site_occupancy
   _atom_site_fract_x
   _atom_site_fract_y
   _atom_site_fract_z
   _atom_site_adp_type
   _atom_site_U_iso_or_equiv
   _atom_site_type_symbol
   B1         1.0     0.904992     0.952677     0.111014    Uiso  ? B
   B2         1.0     0.904946     0.095421     0.111046    Uiso  ? B
   B3         1.0     0.905008     0.238241     0.111058    Uiso  ? B
   B4         1.0     0.904930     0.380949     0.110996    Uiso  ? B
   B5         1.0     0.904926     0.523712     0.110999    Uiso  ? B
   B6         1.0     0.905254     0.666743     0.111116    Uiso  ? B
   B7         1.0     0.905292     0.809950     0.111072    Uiso  ? B
   B8         1.0     0.047511     0.952224     0.111011    Uiso  ? B
   B9         1.0     0.047667     0.095222     0.111004    Uiso  ? B
   B10        1.0     0.047900     0.238202     0.110987    Uiso  ? B
   B11        1.0     0.047900     0.381135     0.111021    Uiso  ? B
   B12        1.0     0.047644     0.523860     0.111018    Uiso  ? B
   B13        1.0     0.047492     0.666716     0.111031    Uiso  ? B
   B14        1.0     0.047659     0.809558     0.111004    Uiso  ? B
   B15        1.0     0.190239     0.952083     0.110993    Uiso  ? B
   B16        1.0     0.189819     0.094295     0.111064    Uiso  ? B
   B17        1.0     0.190504     0.237689     0.111011    Uiso  ? B
   B18        1.0     0.190918     0.381148     0.111019    Uiso  ? B
   B19        1.0     0.190511     0.524252     0.111107    Uiso  ? B
   B20        1.0     0.189779     0.666954     0.111101    Uiso  ? B
   B21        1.0     0.190233     0.809609     0.110992    Uiso  ? B
   B22        1.0     0.333161     0.952308     0.111014    Uiso  ? B
   B23        1.0     0.333032     0.094485     0.111105    Uiso  ? B
   B24        1.0     0.331977     0.235794     0.111066    Uiso  ? B
   B25        1.0     0.333612     0.378733     0.111076    Uiso  ? B
   B26        1.0     0.333707     0.526309     0.111049    Uiso  ? B
   B27        1.0     0.331891     0.667603     0.111129    Uiso  ? B
   B28        1.0     0.333008     0.810010     0.111084    Uiso  ? B
   B29        1.0     0.476177     0.952705     0.111003    Uiso  ? B
   B30        1.0     0.476200     0.094960     0.110995    Uiso  ? B
   B31        1.0     0.476047     0.237072     0.111051    Uiso  ? B
   B32        1.0     0.474328     0.377889     0.111142    Uiso  ? B
   B33        1.0     0.474007     0.668016     0.110884    Uiso  ? B
   B34        1.0     0.476003     0.810478     0.111043    Uiso  ? B
   B35        1.0     0.619169     0.952600     0.111010    Uiso  ? B
   B36        1.0     0.619213     0.095327     0.110990    Uiso  ? B
   B37        1.0     0.619201     0.238019     0.111000    Uiso  ? B
   B38        1.0     0.619074     0.380946     0.111018    Uiso  ? B
   B39        1.0     0.620022     0.524705     0.111108    Uiso  ? B
   B40        1.0     0.620720     0.667042     0.110812    Uiso  ? B
   B41        1.0     0.619132     0.809520     0.110908    Uiso  ? B
   B42        1.0     0.762032     0.952588     0.110992    Uiso  ? B
   B43        1.0     0.762106     0.095404     0.111047    Uiso  ? B
   B44        1.0     0.762116     0.238148     0.111055    Uiso  ? B
   B45        1.0     0.761996     0.380834     0.111003    Uiso  ? B
   B46        1.0     0.762073     0.523470     0.111070    Uiso  ? B
   B47        1.0     0.764017     0.667682     0.111034    Uiso  ? B
   B48        1.0     0.762217     0.810141     0.110949    Uiso  ? B
   C1         1.0     0.474525     0.522559     0.111097    Uiso  ? C
   C2         1.0     0.521174     0.475741     0.111308    Uiso  ? C
   C3         1.0     0.521301     0.616712     0.110699    Uiso  ? C
   N1         1.0     0.952621     0.905037     0.111017    Uiso  ? N
   N2         1.0     0.952656     0.047947     0.111002    Uiso  ? N
   N3         1.0     0.952829     0.190796     0.111023    Uiso  ? N
   N4         1.0     0.952827     0.333487     0.111007    Uiso  ? N
   N5         1.0     0.952613     0.476123     0.110948    Uiso  ? N
   N6         1.0     0.952590     0.618989     0.111039    Uiso  ? N
   N7         1.0     0.952613     0.762016     0.111074    Uiso  ? N
   N8         1.0     0.095143     0.904679     0.110959    Uiso  ? N
   N9         1.0     0.094947     0.047349     0.111012    Uiso  ? N
   N10        1.0     0.095514     0.190667     0.110961    Uiso  ? N
   N11        1.0     0.096019     0.333723     0.110977    Uiso  ? N
   N12        1.0     0.095516     0.476281     0.111033    Uiso  ? N
   N13        1.0     0.094908     0.619018     0.111031    Uiso  ? N
   N14        1.0     0.095125     0.761901     0.110972    Uiso  ? N
   N15        1.0     0.237918     0.904691     0.110966    Uiso  ? N
   N16        1.0     0.237757     0.047134     0.111059    Uiso  ? N
   N17        1.0     0.237144     0.189363     0.111040    Uiso  ? N
   N18        1.0     0.238956     0.333719     0.111015    Uiso  ? N
   N19        1.0     0.239033     0.476664     0.111053    Uiso  ? N
   N20        1.0     0.237078     0.619204     0.111131    Uiso  ? N
   N21        1.0     0.237733     0.762064     0.111051    Uiso  ? N
   N22        1.0     0.380843     0.905019     0.111009    Uiso  ? N
   N23        1.0     0.380864     0.047303     0.111026    Uiso  ? N
   N24        1.0     0.380502     0.189347     0.111085    Uiso  ? N
   N25        1.0     0.378839     0.330273     0.111042    Uiso  ? N
   N26        1.0     0.383943     0.477568     0.111050    Uiso  ? N
   N27        1.0     0.378686     0.620004     0.111037    Uiso  ? N
   N28        1.0     0.380462     0.762598     0.111096    Uiso  ? N
   N29        1.0     0.523837     0.905436     0.111011    Uiso  ? N
   N30        1.0     0.523950     0.047716     0.110947    Uiso  ? N
   N31        1.0     0.523862     0.189902     0.110992    Uiso  ? N
   N32        1.0     0.523373     0.331785     0.111021    Uiso  ? N
   N33        1.0     0.523307     0.763026     0.110928    Uiso  ? N
   N34        1.0     0.666797     0.905022     0.110958    Uiso  ? N
   N35        1.0     0.666910     0.047842     0.111001    Uiso  ? N
   N36        1.0     0.666926     0.190512     0.111006    Uiso  ? N
   N37        1.0     0.666797     0.333169     0.110982    Uiso  ? N
   N38        1.0     0.667392     0.476088     0.111030    Uiso  ? N
   N39        1.0     0.669044     0.620192     0.110943    Uiso  ? N
   N40        1.0     0.667641     0.762885     0.110844    Uiso  ? N
   N41        1.0     0.810019     0.905383     0.110974    Uiso  ? N
   N42        1.0     0.809817     0.047937     0.111027    Uiso  ? N
   N43        1.0     0.809869     0.190661     0.111056    Uiso  ? N
   N44        1.0     0.809810     0.333306     0.111009    Uiso  ? N
   N45        1.0     0.809919     0.476043     0.111001    Uiso  ? N
   N46        1.0     0.810378     0.619164     0.111097    Uiso  ? N
   N47        1.0     0.810393     0.762612     0.111013    Uiso  ? N
