
#======================================================================
# CRYSTAL DATA
#----------------------------------------------------------------------
data_VESTA_phase_1

_chemical_name_common                  'As B N                                '
_cell_length_a                         17.527901
_cell_length_b                         17.527901
_cell_length_c                         15.000000
_cell_angle_alpha                      90.000000
_cell_angle_beta                       90.000000
_cell_angle_gamma                      120.000000
_cell_volume                           3990.999734
_space_group_name_H-M_alt              'P 1'
_space_group_IT_number                 1

loop_
_space_group_symop_operation_xyz
   'x, y, z'

loop_
   _atom_site_label
   _atom_site_occupancy
   _atom_site_fract_x
   _atom_site_fract_y
   _atom_site_fract_z
   _atom_site_adp_type
   _atom_site_U_iso_or_equiv
   _atom_site_type_symbol
   As1        1.0     0.523630     0.493019     0.112099    Uiso  ? As
   B1         1.0     0.907242     0.953799     0.111901    Uiso  ? B
   B2         1.0     0.903438     0.093706     0.111090    Uiso  ? B
   B3         1.0     0.902536     0.236020     0.110834    Uiso  ? B
   B4         1.0     0.903407     0.379558     0.111500    Uiso  ? B
   B5         1.0     0.907208     0.524124     0.112548    Uiso  ? B
   B6         1.0     0.911386     0.669245     0.112037    Uiso  ? B
   B7         1.0     0.911857     0.813861     0.112413    Uiso  ? B
   B8         1.0     0.050489     0.954127     0.112467    Uiso  ? B
   B9         1.0     0.047760     0.095357     0.111116    Uiso  ? B
   B10        1.0     0.044902     0.236266     0.110352    Uiso  ? B
   B11        1.0     0.044196     0.379205     0.110198    Uiso  ? B
   B12        1.0     0.045788     0.523394     0.111177    Uiso  ? B
   B13        1.0     0.049484     0.667764     0.112765    Uiso  ? B
   B14        1.0     0.051368     0.811548     0.113158    Uiso  ? B
   B15        1.0     0.192265     0.953208     0.111349    Uiso  ? B
   B16        1.0     0.190197     0.094645     0.111107    Uiso  ? B
   B17        1.0     0.188608     0.237410     0.111416    Uiso  ? B
   B18        1.0     0.185199     0.378904     0.111378    Uiso  ? B
   B19        1.0     0.184256     0.523133     0.110713    Uiso  ? B
   B20        1.0     0.188358     0.667094     0.110710    Uiso  ? B
   B21        1.0     0.191822     0.810470     0.111209    Uiso  ? B
   B22        1.0     0.334107     0.952232     0.110484    Uiso  ? B
   B23        1.0     0.333608     0.094641     0.111184    Uiso  ? B
   B24        1.0     0.329479     0.234601     0.112339    Uiso  ? B
   B25        1.0     0.329471     0.381342     0.113584    Uiso  ? B
   B26        1.0     0.320515     0.522840     0.112963    Uiso  ? B
   B27        1.0     0.327158     0.666953     0.111312    Uiso  ? B
   B28        1.0     0.332976     0.809516     0.110196    Uiso  ? B
   B29        1.0     0.475992     0.949591     0.110654    Uiso  ? B
   B30        1.0     0.476261     0.093275     0.111286    Uiso  ? B
   B31        1.0     0.475755     0.235438     0.111540    Uiso  ? B
   B32        1.0     0.467153     0.368308     0.113003    Uiso  ? B
   B33        1.0     0.459001     0.552940     0.110414    Uiso  ? B
   B34        1.0     0.464298     0.655582     0.110050    Uiso  ? B
   B35        1.0     0.474608     0.804349     0.110182    Uiso  ? B
   B36        1.0     0.617778     0.948841     0.110930    Uiso  ? B
   B37        1.0     0.618276     0.092848     0.111672    Uiso  ? B
   B38        1.0     0.618823     0.236676     0.111512    Uiso  ? B
   B39        1.0     0.620712     0.381241     0.108724    Uiso  ? B
   B40        1.0     0.643665     0.537192     0.103536    Uiso  ? B
   B41        1.0     0.635281     0.672390     0.113013    Uiso  ? B
   B42        1.0     0.617707     0.804781     0.110486    Uiso  ? B
   B43        1.0     0.761170     0.950344     0.111163    Uiso  ? B
   B44        1.0     0.760329     0.092785     0.111510    Uiso  ? B
   B45        1.0     0.760706     0.236162     0.111807    Uiso  ? B
   B46        1.0     0.762585     0.380239     0.111160    Uiso  ? B
   B47        1.0     0.769882     0.525807     0.107725    Uiso  ? B
   B48        1.0     0.777407     0.674834     0.106329    Uiso  ? B
   B49        1.0     0.767928     0.812590     0.109875    Uiso  ? B
   N1         1.0     0.956292     0.907670     0.113018    Uiso  ? N
   N2         1.0     0.952957     0.048108     0.111401    Uiso  ? N
   N3         1.0     0.950239     0.188659     0.110493    Uiso  ? N
   N4         1.0     0.949780     0.331222     0.110588    Uiso  ? N
   N5         1.0     0.951696     0.474892     0.112081    Uiso  ? N
   N6         1.0     0.955359     0.619487     0.113505    Uiso  ? N
   N7         1.0     0.957086     0.764223     0.113390    Uiso  ? N
   N8         1.0     0.097774     0.906364     0.112524    Uiso  ? N
   N9         1.0     0.096076     0.048476     0.111362    Uiso  ? N
   N10        1.0     0.094166     0.190298     0.110629    Uiso  ? N
   N11        1.0     0.091425     0.331211     0.110180    Uiso  ? N
   N12        1.0     0.090871     0.474418     0.110101    Uiso  ? N
   N13        1.0     0.094270     0.618676     0.111402    Uiso  ? N
   N14        1.0     0.097286     0.762895     0.112607    Uiso  ? N
   N15        1.0     0.239415     0.905433     0.110715    Uiso  ? N
   N16        1.0     0.238944     0.048188     0.110917    Uiso  ? N
   N17        1.0     0.235967     0.189370     0.111348    Uiso  ? N
   N18        1.0     0.235500     0.333327     0.112270    Uiso  ? N
   N19        1.0     0.229057     0.473675     0.111708    Uiso  ? N
   N20        1.0     0.233201     0.618158     0.110644    Uiso  ? N
   N21        1.0     0.238058     0.762113     0.110450    Uiso  ? N
   N22        1.0     0.381167     0.904161     0.110188    Uiso  ? N
   N23        1.0     0.381437     0.047333     0.110851    Uiso  ? N
   N24        1.0     0.380513     0.190131     0.111832    Uiso  ? N
   N25        1.0     0.374951     0.329799     0.113850    Uiso  ? N
   N26        1.0     0.371808     0.479190     0.113779    Uiso  ? N
   N27        1.0     0.370804     0.617475     0.112641    Uiso  ? N
   N28        1.0     0.379389     0.760921     0.110299    Uiso  ? N
   N29        1.0     0.522680     0.900266     0.110514    Uiso  ? N
   N30        1.0     0.523398     0.045159     0.111291    Uiso  ? N
   N31        1.0     0.523671     0.188853     0.111505    Uiso  ? N
   N32        1.0     0.523444     0.331579     0.111032    Uiso  ? N
   N33        1.0     0.520519     0.752361     0.109708    Uiso  ? N
   N34        1.0     0.664983     0.900404     0.110783    Uiso  ? N
   N35        1.0     0.665210     0.044461     0.111508    Uiso  ? N
   N36        1.0     0.665659     0.188608     0.111975    Uiso  ? N
   N37        1.0     0.666670     0.332897     0.110584    Uiso  ? N
   N38        1.0     0.674845     0.477991     0.104700    Uiso  ? N
   N39        1.0     0.684852     0.628866     0.103290    Uiso  ? N
   N40        1.0     0.672161     0.763505     0.110239    Uiso  ? N
   N41        1.0     0.812138     0.906104     0.111081    Uiso  ? N
   N42        1.0     0.808097     0.045404     0.111370    Uiso  ? N
   N43        1.0     0.807617     0.188135     0.111490    Uiso  ? N
   N44        1.0     0.808388     0.331636     0.111810    Uiso  ? N
   N45        1.0     0.812731     0.475774     0.111212    Uiso  ? N
   N46        1.0     0.817543     0.621420     0.108035    Uiso  ? N
   N47        1.0     0.818153     0.767545     0.109871    Uiso  ? N
